
 *******************************************************************************

         NASA-GLENN CHEMICAL EQUILIBRIUM PROGRAM CEA2, MAY 21, 2004
                   BY  BONNIE MCBRIDE AND SANFORD GORDON
      REFS: NASA RP-1311, PART I, 1994 AND NASA RP-1311, PART II, 1996

 *******************************************************************************



 problem
 ro
 fac
 ac/at=6
 p,bar=242.7057
 supar= 3.2
 o/f=1.2722
 reactant
 fu Jet-A(L) wt%=100
 ox O2(L) wt%=100
 output short
 output siunits
 output massf
 output transport
 plot t gam m cf
 end






              THEORETICAL ROCKET PERFORMANCE ASSUMING EQUILIBRIUM

            COMPOSITION DURING EXPANSION FROM FINITE AREA COMBUSTOR

 Pin =  3520.2 PSIA
 Ac/At =  6.0000      Pinj/Pinf =  1.006161
 CASE =                

             REACTANT                    WT FRACTION      ENERGY      TEMP
                                          (SEE NOTE)     KJ/KG-MOL      K  
 FUEL        Jet-A(L)                     1.0000000         0.000      0.000
 OXIDANT     O2(L)                        1.0000000    -12979.000     90.170

 O/F=    1.27220  %FUEL= 44.010210  R,EQ.RATIO= 2.668407  PHI,EQ.RATIO= 2.668407

                 INJECTOR  COMB END  THROAT     EXIT
 Pinj/P            1.0000   1.0124   1.8389   18.788
 P, BAR            242.71   239.73   131.99   12.918
 T, K             2285.44  2282.27  1998.38  1264.63
 RHO, KG/CU M    2.0682 1 2.0456 1 1.2872 1 2.0593 0
 H, KJ/KG         -227.10  -234.38  -889.19 -2753.52
 U, KJ/KG        -1400.62 -1406.28 -1914.54 -3380.82
 G, KJ/KG        -27770.2 -27746.4 -24979.0 -17998.2
 S, KJ/(KG)(K)    12.0515  12.0547  12.0547  12.0547

 M, (1/n)          16.193   16.192   16.205   16.762
 (dLV/dLP)t      -1.00231 -1.00229 -1.00341 -1.04747
 (dLV/dLT)p        1.0148   1.0147   1.0235   1.5437
 Cp, KJ/(KG)(K)    2.3612   2.3604   2.3461   5.2634
 GAMMAs            1.2847   1.2848   1.2915   1.2152
 SON VEL,M/SEC     1227.9   1227.1   1150.7    873.1
 MACH NUMBER        0.000    0.098    1.000    2.575

 TRANSPORT PROPERTIES (GASES ONLY)
   CONDUCTIVITY IN UNITS OF MILLIWATTS/(CM)(K)

 VISC,MILLIPOISE  0.95467  0.95382  0.87553  0.64835

  WITH EQUILIBRIUM REACTIONS

 Cp, KJ/(KG)(K)    2.3612   2.3604   2.3461   5.2634
 CONDUCTIVITY      6.8924   6.8832   6.1285   6.9050
 PRANDTL NUMBER    0.3270   0.3271   0.3352   0.4942

  WITH FROZEN REACTIONS

 Cp, KJ/(KG)(K)    2.2881   2.2876   2.2459   2.0956
 CONDUCTIVITY      6.6108   6.6039   5.9565   4.0189
 PRANDTL NUMBER    0.3304   0.3304   0.3301   0.3381

 PERFORMANCE PARAMETERS

 Ae/At                      6.0002   1.0000   3.2000
 CSTAR, M/SEC               1628.5   1628.5   1628.5
 CF                         0.0741   0.7066   1.3804
 Ivac, M/SEC                9831.3   2041.8   2526.9
 Isp, M/SEC                  120.7   1150.7   2247.9


 MASS FRACTIONS

 CH3              0.00001  0.00001  0.00000  0.00000
 CH4              0.00054  0.00053  0.00085  0.01729
 *CO              0.86666  0.86665  0.86332  0.80223
 *CO2             0.02584  0.02588  0.03030  0.08126
 C2H2,acetylene   0.00001  0.00001  0.00000  0.00000
 CH2CO,ketene     0.00001  0.00001  0.00000  0.00000
 *H               0.00002  0.00002  0.00001  0.00000
 HCO              0.00002  0.00002  0.00000  0.00000
 *H2              0.05502  0.05502  0.05512  0.05127
 HCHO,formaldehy  0.00004  0.00004  0.00002  0.00000
 HCOOH            0.00001  0.00001  0.00000  0.00000
 H2O              0.05183  0.05181  0.05035  0.04795
 *OH              0.00001  0.00001  0.00000  0.00000

  * THERMODYNAMIC PROPERTIES FITTED TO 20000.K

 NOTE. WEIGHT FRACTION OF FUEL IN TOTAL FUELS AND OF OXIDANT IN TOTAL OXIDANTS



